Version 4
SHEET 1 5748 2760
WIRE 1952 -736 1904 -736
WIRE 2016 -736 1952 -736
WIRE 2240 -736 2016 -736
WIRE 2368 -736 2240 -736
WIRE 1904 -720 1904 -736
WIRE 2240 -704 2240 -736
WIRE 1904 -560 1904 -640
WIRE 1904 -560 1888 -560
WIRE 2240 -560 2240 -624
WIRE 2240 -560 2224 -560
WIRE 2400 -560 2384 -560
WIRE 2320 -512 2320 -560
WIRE 2320 -512 2288 -512
WIRE 2400 -512 2400 -560
WIRE 2416 -512 2400 -512
WIRE 1632 -464 1600 -464
WIRE 1968 -464 1936 -464
WIRE 2320 -464 2320 -512
WIRE 2400 -464 2400 -512
WIRE 2400 -464 2384 -464
WIRE 1600 -384 1600 -464
WIRE 1600 -336 1600 -384
WIRE 1936 -336 1936 -464
WIRE 1936 -336 1600 -336
WIRE 1600 -288 1600 -336
WIRE 1968 -240 1872 -240
WIRE 2064 -240 1968 -240
WIRE 2336 -240 2336 -272
WIRE 2336 -240 2144 -240
WIRE 1968 -128 1968 -240
WIRE 2064 -128 1968 -128
WIRE 2192 -128 2128 -128
WIRE 1968 -32 1968 -128
WIRE 2000 -32 1968 -32
WIRE 2112 -16 2064 -16
WIRE 2192 -16 2192 -128
WIRE 2192 -16 2176 -16
WIRE 2224 -16 2192 -16
WIRE 2336 -16 2336 -240
WIRE 2336 -16 2304 -16
WIRE 2400 -16 2336 -16
WIRE 1792 0 1744 0
WIRE 1904 0 1872 0
WIRE 2000 0 1904 0
WIRE 1904 80 1904 64
WIRE 1840 224 1792 224
WIRE 1968 224 1920 224
WIRE 2064 224 1968 224
WIRE 2192 224 2128 224
WIRE 1968 320 1968 224
WIRE 2000 320 1968 320
WIRE 2112 336 2064 336
WIRE 2192 336 2192 224
WIRE 2192 336 2176 336
WIRE 2224 336 2192 336
WIRE 2336 336 2336 -16
WIRE 2336 336 2304 336
WIRE 1840 352 1760 352
WIRE 1936 352 1920 352
WIRE 2000 352 1936 352
WIRE 1936 432 1936 352
WIRE 2032 432 1936 432
WIRE 1936 448 1936 432
WIRE 2032 448 2032 432
WIRE 2032 528 2032 512
FLAG 2016 -672 0
FLAG 1600 -208 0
FLAG 1664 -800 0
FLAG 1664 -880 vin
FLAG 1776 -800 0
FLAG 1776 -880 vcc
FLAG 1888 -800 0
FLAG 1888 -880 vee
FLAG 1760 -624 vin
FLAG 2096 -624 vin
FLAG 1760 -400 vset
FLAG 2096 -400 vset
FLAG 2032 -48 vcc
FLAG 2032 16 vee
FLAG 2400 -16 vset
FLAG 1952 -736 vout
FLAG 2336 -352 0
FLAG 2288 -512 vset
FLAG 2416 -512 vout
FLAG 1872 -160 0
FLAG 1744 80 0
FLAG 2032 304 vcc
FLAG 2032 368 vee
FLAG 1792 224 imon
FLAG 1904 80 0
FLAG 1600 -384 imon
FLAG 2032 528 0
FLAG 1936 528 0
FLAG 1760 432 0
FLAG 2368 -656 0
SYMBOL PowerProducts\\LT3081 1760 -512 R0
SYMATTR InstName U3
SYMBOL cap 2000 -736 R0
WINDOW 0 45 26 Left 2
WINDOW 3 46 57 Left 2
SYMATTR InstName C10
SYMATTR Value 10µ
SYMATTR SpiceLine Rser=0.5
SYMBOL PowerProducts\\LT3081 2096 -512 R0
SYMATTR InstName U4
SYMBOL voltage 1664 -896 R0
WINDOW 123 0 0 Left 0
WINDOW 39 0 0 Left 0
SYMATTR InstName V1
SYMATTR Value 15
SYMBOL voltage 1776 -896 R0
WINDOW 123 0 0 Left 0
WINDOW 39 24 44 Left 2
SYMATTR InstName V6
SYMATTR Value 30
SYMBOL voltage 1888 -896 R0
WINDOW 123 0 0 Left 0
WINDOW 39 0 0 Left 0
SYMATTR InstName V4
SYMATTR Value -3
SYMBOL current 2368 -736 R0
WINDOW 123 0 0 Left 0
WINDOW 39 40 48 Left 2
WINDOW 0 44 16 Left 2
WINDOW 3 140 -33 Right 2
SYMATTR SpiceLine load
SYMATTR InstName I3
SYMATTR Value PULSE(20m 3 100m 1n 1n 500m 1)
SYMBOL res 1584 -304 R0
SYMATTR InstName R3
SYMATTR Value 500
SYMBOL res 1888 -736 R0
SYMATTR InstName R1
SYMATTR Value 10m
SYMBOL res 2224 -720 R0
SYMATTR InstName R11
SYMATTR Value 10m
SYMBOL OpAmps\\UniversalOpamp2 2032 -16 R0
SYMATTR InstName U2
SYMBOL diode 2176 -32 R90
WINDOW 0 0 32 VBottom 2
WINDOW 3 32 32 VTop 2
SYMATTR InstName D1
SYMATTR Value 1N4148
SYMBOL res 2320 -32 R90
WINDOW 0 0 56 VBottom 2
WINDOW 3 32 56 VTop 2
SYMATTR InstName R12
SYMATTR Value 100
SYMBOL cap 2064 -112 R270
WINDOW 0 32 32 VTop 2
WINDOW 3 0 32 VBottom 2
SYMATTR InstName C5
SYMATTR Value 100n
SYMBOL res 2160 -256 R90
WINDOW 0 0 56 VBottom 2
WINDOW 3 32 56 VTop 2
SYMATTR InstName R15
SYMATTR Value 40k
SYMBOL current 2336 -352 R0
WINDOW 123 0 0 Left 0
WINDOW 39 0 0 Left 0
SYMATTR InstName I5
SYMATTR Value 2.5m
SYMBOL schottky 2320 -448 R270
WINDOW 0 32 32 VTop 2
WINDOW 3 -32 41 VTop 2
SYMATTR InstName D8
SYMATTR Value BAT54
SYMATTR Description Diode
SYMATTR Type diode
SYMBOL schottky 2384 -576 R90
WINDOW 0 0 32 VBottom 2
WINDOW 3 61 24 VBottom 2
SYMATTR InstName D9
SYMATTR Value BAT54
SYMATTR Description Diode
SYMATTR Type diode
SYMBOL res 1888 -144 R180
WINDOW 0 36 76 Left 2
WINDOW 3 36 40 Left 2
SYMATTR InstName R18
SYMATTR Value 10k
SYMBOL voltage 1744 -16 R0
WINDOW 0 -17 -5 Left 2
WINDOW 123 0 0 Left 0
WINDOW 39 0 0 Left 0
SYMATTR InstName V2
SYMATTR Value 2
SYMBOL res 2320 320 R90
WINDOW 0 0 56 VBottom 2
WINDOW 3 32 56 VTop 2
SYMATTR InstName R19
SYMATTR Value 100
SYMBOL OpAmps\\UniversalOpamp2 2032 336 R0
SYMATTR InstName U7
SYMBOL diode 2176 320 R90
WINDOW 0 0 32 VBottom 2
WINDOW 3 32 32 VTop 2
SYMATTR InstName D6
SYMATTR Value 1N4148
SYMBOL cap 2064 240 R270
WINDOW 0 32 32 VTop 2
WINDOW 3 0 32 VBottom 2
SYMATTR InstName C8
SYMATTR Value 1n
SYMBOL res 1936 208 R90
WINDOW 0 0 56 VBottom 2
WINDOW 3 32 56 VTop 2
SYMATTR InstName R22
SYMATTR Value 2.2k
SYMBOL cap 1888 0 R0
WINDOW 0 38 17 Left 2
SYMATTR InstName C9
SYMATTR Value 1µ
SYMBOL res 1776 16 R270
WINDOW 0 32 56 VTop 2
WINDOW 3 0 56 VBottom 2
SYMATTR InstName R23
SYMATTR Value 1k
SYMBOL cap 2016 448 R0
SYMATTR InstName C11
SYMATTR Value 1µ
SYMBOL res 1920 432 R0
SYMATTR InstName R24
SYMATTR Value 650
SYMBOL voltage 1760 336 R0
WINDOW 0 -21 -11 Left 2
WINDOW 123 0 0 Left 0
WINDOW 39 0 0 Left 0
SYMATTR InstName V10
SYMATTR Value 2
SYMBOL res 1936 336 R90
WINDOW 0 0 56 VBottom 2
WINDOW 3 32 56 VTop 2
SYMATTR InstName R26
SYMATTR Value 10k
TEXT 2136 -944 Left 2 !.tran 1 startup uic
TEXT 2400 -312 Left 2 ;LT3092
TEXT 1696 24 Right 2 ;VOLTAGE DAC\n0 ... 5V
TEXT 1712 376 Right 2 ;CURRENT DAC\n0 ... 5 V
TEXT 2104 456 Left 2 ;0 ... 300mV
TEXT 1640 -976 Left 2 ;Use differential feedback to keep\nVIN 2 volts about VOUT
