Version 4
SHEET 1 880 680
WIRE 160 96 160 64
WIRE 160 96 96 96
WIRE 224 96 160 96
WIRE 96 112 96 96
WIRE 224 128 224 96
WIRE 48 144 16 144
WIRE 176 160 144 160
WIRE 288 160 256 160
WIRE 48 176 16 176
WIRE 96 224 96 208
WIRE 160 224 96 224
WIRE 224 224 224 192
WIRE 224 224 160 224
WIRE 160 256 160 224
FLAG 288 160 Out
IOPIN 288 160 Out
FLAG 16 144 A
IOPIN 16 144 In
FLAG 16 176 B
IOPIN 16 176 In
FLAG 160 64 Vdd
FLAG 160 256 Vss
SYMBOL NOT 208 160 R0
SYMATTR InstName X1
SYMBOL NAND 64 160 R0
SYMATTR InstName X2
