Version 4
SHEET 1 4184 2676
WIRE 16 160 16 128
WIRE 2592 240 2592 128
WIRE 1120 256 1120 144
WIRE 2464 304 2144 304
WIRE 3008 304 2720 304
WIRE 3136 304 3008 304
WIRE 3184 304 3136 304
WIRE 992 320 672 320
WIRE 1488 320 1248 320
WIRE 1616 320 1488 320
WIRE 1712 320 1616 320
WIRE 2464 400 2224 400
WIRE 2752 400 2720 400
WIRE 2832 400 2752 400
WIRE 3008 400 3008 304
WIRE 3008 400 2912 400
WIRE 3184 400 3184 304
WIRE 992 416 752 416
WIRE 1280 416 1248 416
WIRE 1344 416 1280 416
WIRE 1488 416 1488 320
WIRE 1488 416 1424 416
WIRE 1712 416 1712 320
WIRE 2144 512 2144 304
WIRE 2224 512 2224 400
WIRE 2592 512 2592 464
WIRE 672 528 672 320
WIRE 752 528 752 416
WIRE 1120 528 1120 480
WIRE 1056 1200 1056 1136
WIRE 1232 1200 1056 1200
WIRE 2608 1200 2608 1136
WIRE 2784 1200 2608 1200
WIRE 1056 1248 1056 1200
WIRE 2608 1248 2608 1200
WIRE 928 1312 608 1312
WIRE 1600 1312 1184 1312
WIRE 1648 1312 1600 1312
WIRE 2480 1312 2160 1312
WIRE 3152 1312 2736 1312
WIRE 3280 1312 3152 1312
WIRE 1312 1344 1264 1344
WIRE 2864 1344 2816 1344
WIRE 1312 1376 1312 1344
WIRE 2864 1376 2864 1344
WIRE 1440 1392 1344 1392
WIRE 1472 1392 1440 1392
WIRE 1600 1392 1600 1312
WIRE 1600 1392 1552 1392
WIRE 2992 1392 2896 1392
WIRE 3024 1392 2992 1392
WIRE 3152 1392 3152 1312
WIRE 3152 1392 3104 1392
WIRE 928 1408 688 1408
WIRE 1200 1408 1184 1408
WIRE 1280 1408 1200 1408
WIRE 1648 1408 1648 1312
WIRE 2480 1408 2240 1408
WIRE 2752 1408 2736 1408
WIRE 2832 1408 2752 1408
WIRE 3280 1408 3280 1312
WIRE 1376 1424 1344 1424
WIRE 2928 1424 2896 1424
WIRE 3808 1424 3520 1424
WIRE 1232 1472 1232 1200
WIRE 1312 1472 1312 1440
WIRE 1312 1472 1232 1472
WIRE 2784 1472 2784 1200
WIRE 2864 1472 2864 1440
WIRE 2864 1472 2784 1472
WIRE 3808 1472 3808 1424
WIRE 1440 1504 1440 1392
WIRE 1472 1504 1440 1504
WIRE 1600 1504 1552 1504
WIRE 2992 1504 2992 1392
WIRE 3024 1504 2992 1504
WIRE 3152 1504 3104 1504
WIRE 608 1520 608 1312
WIRE 688 1520 688 1408
WIRE 1056 1520 1056 1472
WIRE 2160 1520 2160 1312
WIRE 2240 1520 2240 1408
WIRE 2608 1520 2608 1472
WIRE 3520 1536 3520 1424
WIRE 1600 1568 1600 1504
WIRE 1264 1584 1264 1344
WIRE 2816 1584 2816 1344
WIRE 1200 1616 1200 1408
WIRE 2752 1616 2752 1408
WIRE 3520 1648 3520 1616
WIRE 3520 1648 3376 1648
WIRE 3152 1664 3152 1504
WIRE 3232 1664 3152 1664
WIRE 3312 1664 3232 1664
WIRE 3408 1680 3376 1680
WIRE 3520 1680 3520 1648
WIRE 1200 1712 1200 1696
WIRE 1376 1712 1376 1424
WIRE 1376 1712 1200 1712
WIRE 2752 1712 2752 1696
WIRE 2928 1712 2928 1424
WIRE 2928 1712 2752 1712
WIRE 3344 1712 3344 1696
WIRE 1200 1728 1200 1712
WIRE 2752 1728 2752 1712
WIRE 3232 1760 3232 1664
WIRE 3408 1760 3408 1680
WIRE 3408 1760 3232 1760
WIRE 2592 2048 2592 1984
WIRE 2768 2048 2592 2048
WIRE 2592 2096 2592 2048
WIRE 2464 2160 2144 2160
WIRE 3136 2160 2720 2160
WIRE 3264 2160 3136 2160
WIRE 2848 2192 2800 2192
WIRE 2848 2224 2848 2192
WIRE 2976 2240 2880 2240
WIRE 3008 2240 2976 2240
WIRE 3136 2240 3136 2160
WIRE 3136 2240 3088 2240
WIRE 2464 2256 2224 2256
WIRE 2736 2256 2720 2256
WIRE 2816 2256 2736 2256
WIRE 3264 2256 3264 2160
WIRE 2912 2272 2880 2272
WIRE 3792 2272 3504 2272
WIRE 2768 2320 2768 2048
WIRE 2848 2320 2848 2288
WIRE 2848 2320 2768 2320
WIRE 3792 2320 3792 2272
WIRE 2976 2352 2976 2240
WIRE 3008 2352 2976 2352
WIRE 3136 2352 3088 2352
WIRE 2144 2368 2144 2160
WIRE 2224 2368 2224 2256
WIRE 2592 2368 2592 2320
WIRE 3504 2384 3504 2272
WIRE 2800 2432 2800 2192
WIRE 2736 2464 2736 2256
WIRE 3504 2496 3504 2464
WIRE 3504 2496 3360 2496
WIRE 3136 2512 3136 2352
WIRE 3216 2512 3136 2512
WIRE 3296 2512 3216 2512
WIRE 3392 2528 3360 2528
WIRE 3504 2528 3504 2496
WIRE 2736 2560 2736 2544
WIRE 2912 2560 2912 2272
WIRE 2912 2560 2736 2560
WIRE 3328 2560 3328 2544
WIRE 2736 2576 2736 2560
WIRE 3216 2608 3216 2512
WIRE 3392 2608 3392 2528
WIRE 3392 2608 3216 2608
FLAG 16 240 0
FLAG 16 128 Vcc
FLAG 1120 144 Vcc
FLAG 1120 608 0
FLAG 752 608 0
FLAG 672 608 0
FLAG 1712 496 0
FLAG 2592 128 Vcc
FLAG 2592 592 0
FLAG 2224 592 0
FLAG 2144 592 0
FLAG 3184 480 0
FLAG 1616 320 out1
FLAG 3136 304 out2
FLAG 1280 416 st1
FLAG 2752 400 st2
FLAG 1056 1136 Vcc
FLAG 1056 1600 0
FLAG 688 1600 0
FLAG 608 1600 0
FLAG 1648 1488 0
FLAG 1264 1584 0
FLAG 1200 1808 0
FLAG 1600 1648 0
FLAG 2608 1136 Vcc
FLAG 2608 1600 0
FLAG 2240 1600 0
FLAG 2160 1600 0
FLAG 3280 1488 0
FLAG 2816 1584 0
FLAG 2752 1808 0
FLAG 3808 1552 0
FLAG 3344 1632 0
FLAG 3344 1712 Vcc
FLAG 3520 1760 0
FLAG 2592 1984 Vcc
FLAG 2592 2448 0
FLAG 2224 2448 0
FLAG 2144 2448 0
FLAG 3264 2336 0
FLAG 2800 2432 0
FLAG 2736 2656 0
FLAG 3792 2400 0
FLAG 3328 2480 0
FLAG 3328 2560 Vcc
FLAG 3504 2608 0
SYMBOL PowerProducts\\LT3081 1120 368 R0
SYMATTR InstName U1
SYMBOL voltage 16 144 R0
WINDOW 123 0 0 Left 0
WINDOW 39 0 0 Left 0
SYMATTR InstName V1
SYMATTR Value 10
SYMBOL res 656 512 R0
SYMATTR InstName R1
SYMATTR Value 1k
SYMBOL res 736 512 R0
SYMATTR InstName R2
SYMATTR Value 1k
SYMBOL res 1104 512 R0
SYMATTR InstName R3
SYMATTR Value 100k
SYMBOL res 1696 400 R0
SYMATTR InstName R4
SYMATTR Value 10
SYMBOL PowerProducts\\LT3081 2592 352 R0
SYMATTR InstName U2
SYMBOL res 2128 496 R0
SYMATTR InstName R5
SYMATTR Value 1k
SYMBOL res 2208 496 R0
SYMATTR InstName R6
SYMATTR Value 1k
SYMBOL res 2576 496 R0
SYMATTR InstName R7
SYMATTR Value 100k
SYMBOL res 3168 384 R0
SYMATTR InstName R8
SYMATTR Value 10
SYMBOL res 1440 400 R90
WINDOW 0 0 56 VBottom 2
WINDOW 3 32 56 VTop 2
SYMATTR InstName R9
SYMATTR Value 5k
SYMBOL voltage 2816 400 R270
WINDOW 0 32 56 VTop 2
WINDOW 3 -32 56 VBottom 2
WINDOW 123 0 0 Left 0
WINDOW 39 0 0 Left 0
SYMATTR InstName V2
SYMATTR Value PWL(0 0.0027 8 0.0077)
SYMBOL PowerProducts\\LT3081 1056 1360 R0
SYMATTR InstName U3
SYMBOL res 592 1504 R0
SYMATTR InstName R10
SYMATTR Value 1k
SYMBOL res 672 1504 R0
SYMATTR InstName R11
SYMATTR Value 1k
SYMBOL res 1040 1504 R0
SYMATTR InstName R12
SYMATTR Value 100k
SYMBOL res 1632 1392 R0
SYMATTR InstName R13
SYMATTR Value 10
SYMBOL OpAmps\\LT1014 1312 1472 R180
SYMATTR InstName U4
SYMBOL res 1184 1600 R0
SYMATTR InstName R14
SYMATTR Value 1k
SYMBOL res 1184 1712 R0
SYMATTR InstName R15
SYMATTR Value 1k
SYMBOL res 1568 1376 R90
WINDOW 0 0 56 VBottom 2
WINDOW 3 32 56 VTop 2
SYMATTR InstName R16
SYMATTR Value 10k
SYMBOL res 1568 1488 R90
WINDOW 0 0 56 VBottom 2
WINDOW 3 32 56 VTop 2
SYMATTR InstName R17
SYMATTR Value 10k
SYMBOL voltage 1600 1552 R0
WINDOW 123 0 0 Left 0
WINDOW 39 0 0 Left 0
SYMATTR InstName V3
SYMATTR Value PWL(0 0 8 0.04)
SYMBOL PowerProducts\\LT3081 2608 1360 R0
SYMATTR InstName U5
SYMBOL res 2144 1504 R0
SYMATTR InstName R18
SYMATTR Value 1k
SYMBOL res 2224 1504 R0
SYMATTR InstName R19
SYMATTR Value 1k
SYMBOL res 2592 1504 R0
SYMATTR InstName R20
SYMATTR Value 100k
SYMBOL res 3264 1392 R0
SYMATTR InstName R21
SYMATTR Value 10
SYMBOL OpAmps\\LT1014 2864 1472 R180
SYMATTR InstName U6
SYMBOL res 2736 1600 R0
SYMATTR InstName R22
SYMATTR Value 1k
SYMBOL res 2736 1712 R0
SYMATTR InstName R23
SYMATTR Value 1k
SYMBOL res 3120 1376 R90
WINDOW 0 0 56 VBottom 2
WINDOW 3 32 56 VTop 2
SYMATTR InstName R24
SYMATTR Value 10k
SYMBOL res 3120 1488 R90
WINDOW 0 0 56 VBottom 2
WINDOW 3 32 56 VTop 2
SYMATTR InstName R25
SYMATTR Value 10k
SYMBOL voltage 3808 1456 R0
WINDOW 123 0 0 Left 0
WINDOW 39 0 0 Left 0
SYMATTR InstName V4
SYMATTR Value PWL(0 0 8 2.5)
SYMBOL OpAmps\\LT1014 3344 1728 R180
SYMATTR InstName U7
SYMBOL res 3504 1664 R0
SYMATTR InstName R26
SYMATTR Value 1k
SYMBOL res 3504 1520 R0
SYMATTR InstName R27
SYMATTR Value 68k
SYMBOL ZZZ\\OpAmp\\LM324 3328 2512 R180
SYMATTR InstName U8
SYMBOL PowerProducts\\LT3081 2592 2208 R0
SYMATTR InstName U9
SYMBOL res 2128 2352 R0
SYMATTR InstName R28
SYMATTR Value 1k
SYMBOL res 2208 2352 R0
SYMATTR InstName R29
SYMATTR Value 1k
SYMBOL res 2576 2352 R0
SYMATTR InstName R30
SYMATTR Value 100k
SYMBOL res 3248 2240 R0
SYMATTR InstName R31
SYMATTR Value 10
SYMBOL res 2720 2448 R0
SYMATTR InstName R32
SYMATTR Value 10k
SYMBOL res 2720 2560 R0
SYMATTR InstName R33
SYMATTR Value 1k
SYMBOL res 3104 2224 R90
WINDOW 0 0 56 VBottom 2
WINDOW 3 32 56 VTop 2
SYMATTR InstName R34
SYMATTR Value 10k
SYMBOL res 3104 2336 R90
WINDOW 0 0 56 VBottom 2
WINDOW 3 32 56 VTop 2
SYMATTR InstName R35
SYMATTR Value 1k
SYMBOL voltage 3792 2304 R0
WINDOW 123 0 0 Left 0
WINDOW 39 0 0 Left 0
SYMATTR InstName V5
SYMATTR Value PWL(0 0 8 2.5)
SYMBOL res 3488 2512 R0
SYMATTR InstName R36
SYMATTR Value 1k
SYMBOL res 3488 2368 R0
SYMATTR InstName R37
SYMATTR Value 10k
SYMBOL ZZZ\\OpAmp\\LM324 2848 2256 R180
SYMATTR InstName U10
TEXT -72 56 Left 2 !.tran 10 startup
